LIG
 OpenBabel09182516053D

 51 55  0  0  1  0  0  0  0  0999 V2000
  -34.7150  -11.6520  -16.6310 Cl  0  0  0  0  0  0  0  0  0  0  0  0
  -22.9340   -6.3400  -20.0410 O   0  5  0  0  0  0  0  0  0  0  0  0
  -24.3310   -5.3400  -21.4810 O   0  0  0  0  0  0  0  0  0  0  0  0
  -28.0090  -10.0020  -19.1170 O   0  0  0  0  0  0  0  0  0  0  0  0
  -28.8330   -7.5050  -20.4630 N   0  0  0  0  0  0  0  0  0  0  0  0
  -28.9180  -10.3930  -20.1400 C   0  0  0  0  0  0  0  0  0  0  0  0
  -29.2220   -6.4290  -21.3680 C   0  0  0  0  0  0  0  0  0  0  0  0
  -29.9320   -8.1400  -19.7520 C   0  0  0  0  0  0  0  0  0  0  0  0
  -30.0850   -3.2590  -20.0840 C   0  0  0  0  0  0  0  0  0  0  0  0
  -32.1960  -10.8220  -16.9620 C   0  0  0  0  0  0  0  0  0  0  0  0
  -25.7890   -9.2170  -19.0780 C   0  0  0  0  0  0  0  0  0  0  0  0
  -30.0180   -4.7050  -19.4980 C   0  0  0  0  0  0  0  0  0  0  0  0
  -29.6320   -3.8740  -21.4460 C   0  0  0  0  0  0  0  0  0  0  0  0
  -24.7750   -8.3280  -19.4300 C   0  0  0  0  0  0  0  0  0  0  0  0
  -31.0970  -10.3420  -17.6950 C   0  0  0  0  0  0  0  0  0  0  0  0
  -32.4700   -9.9350  -21.1110 C   0  0  0  0  0  0  0  0  0  0  0  0
  -33.6160  -10.7350  -18.9620 C   0  0  0  0  0  0  0  0  0  0  0  0
  -26.4350   -6.9470  -20.5770 C   0  0  0  0  0  0  0  0  0  0  0  0
  -30.9620   -9.8180  -21.4090 C   0  0  0  0  0  0  0  0  0  0  0  0
  -24.0110   -6.2670  -20.5450 C   0  0  0  0  0  0  0  0  0  0  0  0
  -33.4210  -11.0130  -17.5930 C   0  0  0  0  0  0  0  0  0  0  0  0
  -27.1240   -8.9990  -19.4650 C   0  0  0  0  0  0  0  0  0  0  0  0
  -27.4870   -7.8330  -20.2160 C   0  0  0  0  0  0  0  0  0  0  0  0
  -29.0460   -5.0610  -20.6570 C   0  0  0  0  0  0  0  0  0  0  0  0
  -25.0930   -7.1870  -20.1870 C   0  0  0  0  0  0  0  0  0  0  0  0
  -32.5030  -10.2620  -19.6650 C   0  0  0  0  0  0  0  0  0  0  0  0
  -31.2620  -10.0660  -19.0620 C   0  0  0  0  0  0  0  0  0  0  0  0
  -30.2250   -9.5930  -20.0710 C   0  0  1  0  0  0  0  0  0  0  0  0
  -28.4600  -10.2282  -21.0929 H   0  0  0  0  0  0  0  0  0  0  0  0
  -29.1518  -11.4280  -20.0019 H   0  0  0  0  0  0  0  0  0  0  0  0
  -28.6050   -6.4581  -22.2417 H   0  0  0  0  0  0  0  0  0  0  0  0
  -30.2469   -6.5541  -21.6487 H   0  0  0  0  0  0  0  0  0  0  0  0
  -30.8183   -7.5799  -19.9657 H   0  0  0  0  0  0  0  0  0  0  0  0
  -29.6282   -8.1419  -18.7260 H   0  0  0  0  0  0  0  0  0  0  0  0
  -31.0627   -2.8243  -20.0923 H   0  0  0  0  0  0  0  0  0  0  0  0
  -29.5647   -2.4406  -19.6318 H   0  0  0  0  0  0  0  0  0  0  0  0
  -32.0943  -11.0325  -15.9568 H   0  0  0  0  0  0  0  0  0  0  0  0
  -25.5554  -10.0538  -18.5211 H   0  0  0  0  0  0  0  0  0  0  0  0
  -29.5884   -4.7702  -18.5202 H   0  0  0  0  0  0  0  0  0  0  0  0
  -30.9029   -5.2769  -19.3116 H   0  0  0  0  0  0  0  0  0  0  0  0
  -30.4343   -4.1320  -22.1054 H   0  0  0  0  0  0  0  0  0  0  0  0
  -29.0368   -3.3168  -22.1390 H   0  0  0  0  0  0  0  0  0  0  0  0
  -23.8012   -8.5055  -19.1380 H   0  0  0  0  0  0  0  0  0  0  0  0
  -30.1843  -10.1949  -17.2364 H   0  0  0  0  0  0  0  0  0  0  0  0
  -32.9168  -10.7150  -21.6914 H   0  0  0  0  0  0  0  0  0  0  0  0
  -33.0167   -9.0479  -21.3541 H   0  0  0  0  0  0  0  0  0  0  0  0
  -34.5303  -10.8731  -19.4202 H   0  0  0  0  0  0  0  0  0  0  0  0
  -26.6537   -6.1082  -21.1370 H   0  0  0  0  0  0  0  0  0  0  0  0
  -30.7848   -8.9909  -22.0643 H   0  0  0  0  0  0  0  0  0  0  0  0
  -30.6073  -10.7096  -21.8824 H   0  0  0  0  0  0  0  0  0  0  0  0
  -28.0024   -5.1708  -20.4478 H   0  0  0  0  0  0  0  0  0  0  0  0
  3 20  2  0  0  0  0
  5 23  1  0  0  0  0
  5  8  1  0  0  0  0
  6 28  1  0  0  0  0
  6  4  1  0  0  0  0
  6 29  1  0  0  0  0
  6 30  1  0  0  0  0
  7 24  1  0  0  0  0
  7  5  1  0  0  0  0
  7 31  1  0  0  0  0
  7 32  1  0  0  0  0
  8 33  1  0  0  0  0
  8 34  1  0  0  0  0
  9 12  1  0  0  0  0
  9 35  1  0  0  0  0
  9 36  1  0  0  0  0
 10 37  1  0  0  0  0
 11 38  1  0  0  0  0
 12 39  1  0  0  0  0
 12 40  1  0  0  0  0
 13 24  1  0  0  0  0
 13  9  1  0  0  0  0
 13 41  1  0  0  0  0
 13 42  1  0  0  0  0
 14 11  1  0  0  0  0
 14 43  1  0  0  0  0
 15 10  2  0  0  0  0
 15 44  1  0  0  0  0
 16 26  1  0  0  0  0
 16 45  1  0  0  0  0
 16 46  1  0  0  0  0
 17 21  2  0  0  0  0
 17 47  1  0  0  0  0
 18 23  2  0  0  0  0
 18 25  1  0  0  0  0
 18 48  1  0  0  0  0
 19 16  1  0  0  0  0
 19 28  1  0  0  0  0
 19 49  1  0  0  0  0
 19 50  1  0  0  0  0
 20 25  1  0  0  0  0
 20  2  1  0  0  0  0
 21 10  1  0  0  0  0
 21  1  1  0  0  0  0
 22  4  1  0  0  0  0
 22 11  2  0  0  0  0
 23 22  1  0  0  0  0
 24 12  1  0  0  0  0
 24 51  1  0  0  0  0
 25 14  2  0  0  0  0
 26 27  2  0  0  0  0
 26 17  1  0  0  0  0
 27 15  1  0  0  0  0
 28  8  1  0  0  0  0
 28 27  1  1  0  0  0
M  CHG  1   2  -1
M  END


$$$$
